60
# CELL(GENH):   38.56500    0.00000    0.00000   -5.37388   38.18875    0.00000    0.00000    0.00000   15.00000 positions{angstrom} cell{angstrom}
O        4.15200000      25.39500000       2.49600000
H        4.53700000      24.52300000       2.32700000
H        4.84700000      26.05100000       2.34100000
O        5.15200000      22.72600000       2.52500000
H        5.06100000      22.74500000       3.48000000
H        6.11000000      22.54700000       2.39700000
O        0.49100000      28.57800000       2.50400000
H        0.87500000      27.70500000       2.67300000
H        1.18600000      29.23400000       2.65900000
O        1.49000000      25.90800000       2.47500000
H        1.39900000      25.92800000       1.52000000
H        2.44800000      25.73000000       2.60300000
O       11.47500000      19.03000000       2.49600000
H       11.86000000      18.15800000       2.32700000
H       12.17000000      19.68600000       2.34100000
O       12.47500000      16.36100000       2.52500000
H       12.38300000      16.38000000       3.48000000
H       13.43300000      16.18300000       2.39700000
O        7.81300000      22.21300000       2.50400000
H        8.19800000      21.34000000       2.67300000
H        8.50900000      22.86900000       2.65900000
O        8.81300000      19.54300000       2.47500000
H        8.72200000      19.56300000       1.52000000
H        9.77100000      19.36500000       2.60300000
O       18.79800000      12.66600000       2.49600000
H       19.18200000      11.79300000       2.32700000
H       19.49300000      13.32200000       2.34100000
O       19.79800000       9.99600000       2.52500000
H       19.70600000      10.01500000       3.48000000
H       20.75600000       9.81800000       2.39700000
O       15.13600000      15.84800000       2.50400000
H       15.52100000      14.97500000       2.67300000
H       15.83200000      16.50400000       2.65900000
O       16.13600000      13.17800000       2.47500000
H       16.04500000      13.19800000       1.52000000
H       17.09400000      13.00000000       2.60300000
O       -3.17100000      31.76000000       2.49600000
H       -2.78600000      30.88700000       2.32700000
H       -2.47500000      32.41600000       2.34100000
O       -2.17100000      29.09100000       2.52500000
H       -2.26200000      29.11000000       3.48000000
H       -1.21300000      28.91200000       2.39700000
O       26.12100000       6.30100000       2.49600000
H       26.50500000       5.42800000       2.32700000
H       26.81600000       6.95700000       2.34100000
O       27.12100000       3.63100000       2.52500000
H       27.02900000       3.65100000       3.48000000
H       28.07900000       3.45300000       2.39700000
O       22.45900000       9.48300000       2.50400000
H       22.84400000       8.61000000       2.67300000
H       23.15500000      10.13900000       2.65900000
O       23.45900000       6.81300000       2.47500000
H       23.36800000       6.83300000       1.52000000
H       24.41700000       6.63500000       2.60300000
O       29.78200000       3.11800000       2.50400000
H       30.16700000       2.24500000       2.67300000
H       30.47800000       3.77400000       2.65900000
O       30.78200000       0.44900000       2.47500000
H       30.69100000       0.46800000       1.52000000
H       31.74000000       0.27000000       2.60300000
