432
# CELL(GENH):   38.56500    0.00000    0.00000   -5.37388   38.18875    0.00000    0.00000    0.00000   15.00000 positions{angstrom} cell{angstrom}
         O     4.1520000000e+00     2.5395000000e+01     2.4960000000e+00
         H     4.5370000000e+00     2.4523000000e+01     2.3270000000e+00
         H     4.8470000000e+00     2.6051000000e+01     2.3410000000e+00
         O    -1.6600000000e-01     2.3561000000e+01     2.5040000000e+00
         H    -1.0830000000e+00     2.3821000000e+01     2.6730000000e+00
         H     3.8700000000e-01     2.4341000000e+01     2.6590000000e+00
         O     5.1520000000e+00     2.2726000000e+01     2.5250000000e+00
         H     5.0610000000e+00     2.2745000000e+01     3.4800000000e+00
         H     6.1100000000e+00     2.2547000000e+01     2.3970000000e+00
         O     2.5840000000e+00     3.0544000000e+01     2.4750000000e+00
         H     2.6160000000e+00     3.0457000000e+01     1.5200000000e+00
         H     2.2740000000e+00     3.1468000000e+01     2.6030000000e+00
         O     3.4960000000e+00     2.0379000000e+01     2.4960000000e+00
         H     2.5780000000e+00     2.0638000000e+01     2.3270000000e+00
         H     4.0490000000e+00     2.1159000000e+01     2.3410000000e+00
         O     4.9100000000e-01     2.8578000000e+01     2.5040000000e+00
         H     8.7500000000e-01     2.7705000000e+01     2.6730000000e+00
         H     1.1860000000e+00     2.9234000000e+01     2.6590000000e+00
         O     1.4900000000e+00     2.5908000000e+01     2.4750000000e+00
         H     1.3990000000e+00     2.5928000000e+01     1.5200000000e+00
         H     2.4480000000e+00     2.5730000000e+01     2.6030000000e+00
         O     6.2450000000e+00     2.7362000000e+01     2.5250000000e+00
         H     6.2770000000e+00     2.7274000000e+01     3.4800000000e+00
         H     5.9350000000e+00     2.8286000000e+01     2.3970000000e+00
         O     9.6840000000e+00     3.1760000000e+01     2.4960000000e+00
         H     1.0069000000e+01     3.0887000000e+01     2.3270000000e+00
         H     1.0380000000e+01     3.2416000000e+01     2.3410000000e+00
         O     5.3670000000e+00     2.9926000000e+01     2.5040000000e+00
         H     4.4490000000e+00     3.0185000000e+01     2.6730000000e+00
         H     5.9190000000e+00     3.0706000000e+01     2.6590000000e+00
         O     1.0684000000e+01     2.9091000000e+01     2.5250000000e+00
         H     1.0593000000e+01     2.9110000000e+01     3.4800000000e+00
         H     1.1642000000e+01     2.8912000000e+01     2.3970000000e+00
         O     8.1160000000e+00     3.6909000000e+01     2.4750000000e+00
         H     8.1480000000e+00     3.6822000000e+01     1.5200000000e+00
         H     7.8060000000e+00     3.7833000000e+01     2.6030000000e+00
         O     9.0280000000e+00     2.6744000000e+01     2.4960000000e+00
         H     8.1100000000e+00     2.7003000000e+01     2.3270000000e+00
         H     9.5810000000e+00     2.7524000000e+01     2.3410000000e+00
         O     6.0230000000e+00     3.4943000000e+01     2.5040000000e+00
         H     6.4070000000e+00     3.4070000000e+01     2.6730000000e+00
         H     6.7180000000e+00     3.5599000000e+01     2.6590000000e+00
         O     7.0230000000e+00     3.2273000000e+01     2.4750000000e+00
         H     6.9310000000e+00     3.2292000000e+01     1.5200000000e+00
         H     7.9810000000e+00     3.2095000000e+01     2.6030000000e+00
         O     1.1777000000e+01     3.3727000000e+01     2.5250000000e+00
         H     1.1809000000e+01     3.3639000000e+01     3.4800000000e+00
         H     1.1468000000e+01     3.4651000000e+01     2.3970000000e+00
         O     5.9430000000e+00     1.2666000000e+01     2.4960000000e+00
         H     6.3270000000e+00     1.1793000000e+01     2.3270000000e+00
         H     6.6380000000e+00     1.3322000000e+01     2.3410000000e+00
         O     1.6250000000e+00     1.0832000000e+01     2.5040000000e+00
         H     7.0700000000e-01     1.1091000000e+01     2.6730000000e+00
         H     2.1780000000e+00     1.1612000000e+01     2.6590000000e+00
         O     6.9430000000e+00     9.9960000000e+00     2.5250000000e+00
         H     6.8510000000e+00     1.0015000000e+01     3.4800000000e+00
         H     7.9010000000e+00     9.8180000000e+00     2.3970000000e+00
         O     4.3750000000e+00     1.7815000000e+01     2.4750000000e+00
         H     4.4070000000e+00     1.7727000000e+01     1.5200000000e+00
         H     4.0650000000e+00     1.8738000000e+01     2.6030000000e+00
         O     5.2870000000e+00     7.6490000000e+00     2.4960000000e+00
         H     4.3690000000e+00     7.9080000000e+00     2.3270000000e+00
         H     5.8390000000e+00     8.4290000000e+00     2.3410000000e+00
         O     2.2810000000e+00     1.5848000000e+01     2.5040000000e+00
         H     2.6660000000e+00     1.4975000000e+01     2.6730000000e+00
         H     2.9770000000e+00     1.6504000000e+01     2.6590000000e+00
         O     3.2810000000e+00     1.3178000000e+01     2.4750000000e+00
         H     3.1900000000e+00     1.3198000000e+01     1.5200000000e+00
         H     4.2390000000e+00     1.3000000000e+01     2.6030000000e+00
         O     8.0360000000e+00     1.4632000000e+01     2.5250000000e+00
         H     8.0680000000e+00     1.4545000000e+01     3.4800000000e+00
         H     7.7260000000e+00     1.5556000000e+01     2.3970000000e+00
         O     1.1475000000e+01     1.9030000000e+01     2.4960000000e+00
         H     1.1860000000e+01     1.8158000000e+01     2.3270000000e+00
         H     1.2170000000e+01     1.9686000000e+01     2.3410000000e+00
         O     7.1570000000e+00     1.7196000000e+01     2.5040000000e+00
         H     6.2400000000e+00     1.7456000000e+01     2.6730000000e+00
         H     7.7100000000e+00     1.7977000000e+01     2.6590000000e+00
         O     1.2475000000e+01     1.6361000000e+01     2.5250000000e+00
         H     1.2383000000e+01     1.6380000000e+01     3.4800000000e+00
         H     1.3433000000e+01     1.6183000000e+01     2.3970000000e+00
         O     9.9070000000e+00     2.4180000000e+01     2.4750000000e+00
         H     9.9390000000e+00     2.4092000000e+01     1.5200000000e+00
         H     9.5970000000e+00     2.5103000000e+01     2.6030000000e+00
         O     1.0819000000e+01     1.4014000000e+01     2.4960000000e+00
         H     9.9010000000e+00     1.4273000000e+01     2.3270000000e+00
         H     1.1372000000e+01     1.4794000000e+01     2.3410000000e+00
         O     7.8130000000e+00     2.2213000000e+01     2.5040000000e+00
         H     8.1980000000e+00     2.1340000000e+01     2.6730000000e+00
         H     8.5090000000e+00     2.2869000000e+01     2.6590000000e+00
         O     8.8130000000e+00     1.9543000000e+01     2.4750000000e+00
         H     8.7220000000e+00     1.9563000000e+01     1.5200000000e+00
         H     9.7710000000e+00     1.9365000000e+01     2.6030000000e+00
         O     1.3568000000e+01     2.0997000000e+01     2.5250000000e+00
         H     1.3600000000e+01     2.0909000000e+01     3.4800000000e+00
         H     1.3258000000e+01     2.1921000000e+01     2.3970000000e+00
         O     1.7007000000e+01     2.5395000000e+01     2.4960000000e+00
         H     1.7392000000e+01     2.4523000000e+01     2.3270000000e+00
         H     1.7703000000e+01     2.6051000000e+01     2.3410000000e+00
         O     1.2690000000e+01     2.3561000000e+01     2.5040000000e+00
         H     1.1772000000e+01     2.3821000000e+01     2.6730000000e+00
         H     1.3242000000e+01     2.4341000000e+01     2.6590000000e+00
         O     1.8007000000e+01     2.2726000000e+01     2.5250000000e+00
         H     1.7916000000e+01     2.2745000000e+01     3.4800000000e+00
         H     1.8965000000e+01     2.2547000000e+01     2.3970000000e+00
         O     1.5439000000e+01     3.0544000000e+01     2.4750000000e+00
         H     1.5471000000e+01     3.0457000000e+01     1.5200000000e+00
         H     1.5129000000e+01     3.1468000000e+01     2.6030000000e+00
         O     1.6351000000e+01     2.0379000000e+01     2.4960000000e+00
         H     1.5433000000e+01     2.0638000000e+01     2.3270000000e+00
         H     1.6904000000e+01     2.1159000000e+01     2.3410000000e+00
         O     1.3346000000e+01     2.8578000000e+01     2.5040000000e+00
         H     1.3730000000e+01     2.7705000000e+01     2.6730000000e+00
         H     1.4041000000e+01     2.9234000000e+01     2.6590000000e+00
         O     1.4346000000e+01     2.5908000000e+01     2.4750000000e+00
         H     1.4254000000e+01     2.5928000000e+01     1.5200000000e+00
         H     1.5303000000e+01     2.5730000000e+01     2.6030000000e+00
         O     1.9100000000e+01     2.7362000000e+01     2.5250000000e+00
         H     1.9132000000e+01     2.7274000000e+01     3.4800000000e+00
         H     1.8790000000e+01     2.8286000000e+01     2.3970000000e+00
         O     2.2539000000e+01     3.1760000000e+01     2.4960000000e+00
         H     2.2924000000e+01     3.0887000000e+01     2.3270000000e+00
         H     2.3235000000e+01     3.2416000000e+01     2.3410000000e+00
         O     1.8222000000e+01     2.9926000000e+01     2.5040000000e+00
         H     1.7304000000e+01     3.0185000000e+01     2.6730000000e+00
         H     1.8774000000e+01     3.0706000000e+01     2.6590000000e+00
         O     2.3539000000e+01     2.9091000000e+01     2.5250000000e+00
         H     2.3448000000e+01     2.9110000000e+01     3.4800000000e+00
         H     2.4497000000e+01     2.8912000000e+01     2.3970000000e+00
         O     2.0971000000e+01     3.6909000000e+01     2.4750000000e+00
         H     2.1003000000e+01     3.6822000000e+01     1.5200000000e+00
         H     2.0661000000e+01     3.7833000000e+01     2.6030000000e+00
         O     2.1883000000e+01     2.6744000000e+01     2.4960000000e+00
         H     2.0965000000e+01     2.7003000000e+01     2.3270000000e+00
         H     2.2436000000e+01     2.7524000000e+01     2.3410000000e+00
         O     1.8878000000e+01     3.4943000000e+01     2.5040000000e+00
         H     1.9262000000e+01     3.4070000000e+01     2.6730000000e+00
         H     1.9573000000e+01     3.5599000000e+01     2.6590000000e+00
         O     1.9878000000e+01     3.2273000000e+01     2.4750000000e+00
         H     1.9786000000e+01     3.2292000000e+01     1.5200000000e+00
         H     2.0836000000e+01     3.2095000000e+01     2.6030000000e+00
         O     2.4633000000e+01     3.3727000000e+01     2.5250000000e+00
         H     2.4664000000e+01     3.3639000000e+01     3.4800000000e+00
         H     2.4323000000e+01     3.4651000000e+01     2.3970000000e+00
         O     2.3610000000e+00     3.8125000000e+01     2.4960000000e+00
         H     2.7460000000e+00     3.7252000000e+01     2.3270000000e+00
         H     8.4290000000e+00     5.9200000000e-01     2.3410000000e+00
         O    -1.9560000000e+00     3.6291000000e+01     2.5040000000e+00
         H    -2.8740000000e+00     3.6550000000e+01     2.6730000000e+00
         H    -1.4040000000e+00     3.7071000000e+01     2.6590000000e+00
         O     3.3610000000e+00     3.5455000000e+01     2.5250000000e+00
         H     3.2700000000e+00     3.5475000000e+01     3.4800000000e+00
         H     4.3190000000e+00     3.5277000000e+01     2.3970000000e+00
         O     6.1650000000e+00     5.0850000000e+00     2.4750000000e+00
         H     6.1970000000e+00     4.9970000000e+00     1.5200000000e+00
         H     5.8550000000e+00     6.0090000000e+00     2.6030000000e+00
         O     1.7050000000e+00     3.3109000000e+01     2.4960000000e+00
         H     7.8700000000e-01     3.3368000000e+01     2.3270000000e+00
         H     2.2580000000e+00     3.3889000000e+01     2.3410000000e+00
         O     4.0720000000e+00     3.1180000000e+00     2.5040000000e+00
         H     4.4570000000e+00     2.2450000000e+00     2.6730000000e+00
         H     4.7670000000e+00     3.7740000000e+00     2.6590000000e+00
         O     5.0720000000e+00     4.4900000000e-01     2.4750000000e+00
         H     4.9810000000e+00     4.6800000000e-01     1.5200000000e+00
         H     6.0300000000e+00     2.7000000000e-01     2.6030000000e+00
         O     9.8270000000e+00     1.9030000000e+00     2.5250000000e+00
         H     9.8590000000e+00     1.8150000000e+00     3.4800000000e+00
         H     9.5170000000e+00     2.8260000000e+00     2.3970000000e+00
         O     1.3266000000e+01     6.3010000000e+00     2.4960000000e+00
         H     1.3650000000e+01     5.4280000000e+00     2.3270000000e+00
         H     1.3961000000e+01     6.9570000000e+00     2.3410000000e+00
         O     8.9480000000e+00     4.4670000000e+00     2.5040000000e+00
         H     8.0300000000e+00     4.7260000000e+00     2.6730000000e+00
         H     9.5010000000e+00     5.2470000000e+00     2.6590000000e+00
         O     1.4266000000e+01     3.6310000000e+00     2.5250000000e+00
         H     1.4174000000e+01     3.6510000000e+00     3.4800000000e+00
         H     1.5223000000e+01     3.4530000000e+00     2.3970000000e+00
         O     1.1697000000e+01     1.1450000000e+01     2.4750000000e+00
         H     1.1729000000e+01     1.1362000000e+01     1.5200000000e+00
         H     1.1388000000e+01     1.2374000000e+01     2.6030000000e+00
         O     1.2610000000e+01     1.2840000000e+00     2.4960000000e+00
         H     1.1692000000e+01     1.5440000000e+00     2.3270000000e+00
         H     1.3162000000e+01     2.0640000000e+00     2.3410000000e+00
         O     9.6040000000e+00     9.4830000000e+00     2.5040000000e+00
         H     9.9890000000e+00     8.6100000000e+00     2.6730000000e+00
         H     1.0300000000e+01     1.0139000000e+01     2.6590000000e+00
         O     1.0604000000e+01     6.8130000000e+00     2.4750000000e+00
         H     1.0513000000e+01     6.8330000000e+00     1.5200000000e+00
         H     1.1562000000e+01     6.6350000000e+00     2.6030000000e+00
         O     1.5359000000e+01     8.2670000000e+00     2.5250000000e+00
         H     1.5391000000e+01     8.1800000000e+00     3.4800000000e+00
         H     1.5049000000e+01     9.1910000000e+00     2.3970000000e+00
         O     1.8798000000e+01     1.2666000000e+01     2.4960000000e+00
         H     1.9182000000e+01     1.1793000000e+01     2.3270000000e+00
         H     1.9493000000e+01     1.3322000000e+01     2.3410000000e+00
         O     1.4480000000e+01     1.0832000000e+01     2.5040000000e+00
         H     1.3562000000e+01     1.1091000000e+01     2.6730000000e+00
         H     1.5033000000e+01     1.1612000000e+01     2.6590000000e+00
         O     1.9798000000e+01     9.9960000000e+00     2.5250000000e+00
         H     1.9706000000e+01     1.0015000000e+01     3.4800000000e+00
         H     2.0756000000e+01     9.8180000000e+00     2.3970000000e+00
         O     1.7230000000e+01     1.7815000000e+01     2.4750000000e+00
         H     1.7262000000e+01     1.7727000000e+01     1.5200000000e+00
         H     1.6920000000e+01     1.8738000000e+01     2.6030000000e+00
         O     1.8142000000e+01     7.6490000000e+00     2.4960000000e+00
         H     1.7224000000e+01     7.9080000000e+00     2.3270000000e+00
         H     1.8694000000e+01     8.4290000000e+00     2.3410000000e+00
         O     1.5136000000e+01     1.5848000000e+01     2.5040000000e+00
         H     1.5521000000e+01     1.4975000000e+01     2.6730000000e+00
         H     1.5832000000e+01     1.6504000000e+01     2.6590000000e+00
         O     1.6136000000e+01     1.3178000000e+01     2.4750000000e+00
         H     1.6045000000e+01     1.3198000000e+01     1.5200000000e+00
         H     1.7094000000e+01     1.3000000000e+01     2.6030000000e+00
         O     2.0891000000e+01     1.4632000000e+01     2.5250000000e+00
         H     2.0923000000e+01     1.4545000000e+01     3.4800000000e+00
         H     2.0581000000e+01     1.5556000000e+01     2.3970000000e+00
         O     2.4330000000e+01     1.9030000000e+01     2.4960000000e+00
         H     2.4715000000e+01     1.8158000000e+01     2.3270000000e+00
         H     2.5025000000e+01     1.9686000000e+01     2.3410000000e+00
         O     2.0012000000e+01     1.7196000000e+01     2.5040000000e+00
         H     1.9095000000e+01     1.7456000000e+01     2.6730000000e+00
         H     2.0565000000e+01     1.7977000000e+01     2.6590000000e+00
         O     2.5330000000e+01     1.6361000000e+01     2.5250000000e+00
         H     2.5239000000e+01     1.6380000000e+01     3.4800000000e+00
         H     2.6288000000e+01     1.6183000000e+01     2.3970000000e+00
         O     2.2762000000e+01     2.4180000000e+01     2.4750000000e+00
         H     2.2794000000e+01     2.4092000000e+01     1.5200000000e+00
         H     2.2452000000e+01     2.5103000000e+01     2.6030000000e+00
         O     2.3674000000e+01     1.4014000000e+01     2.4960000000e+00
         H     2.2756000000e+01     1.4273000000e+01     2.3270000000e+00
         H     2.4227000000e+01     1.4794000000e+01     2.3410000000e+00
         O     2.0669000000e+01     2.2213000000e+01     2.5040000000e+00
         H     2.1053000000e+01     2.1340000000e+01     2.6730000000e+00
         H     2.1364000000e+01     2.2869000000e+01     2.6590000000e+00
         O     2.1668000000e+01     1.9543000000e+01     2.4750000000e+00
         H     2.1577000000e+01     1.9563000000e+01     1.5200000000e+00
         H     2.2626000000e+01     1.9365000000e+01     2.6030000000e+00
         O     2.6423000000e+01     2.0997000000e+01     2.5250000000e+00
         H     2.6455000000e+01     2.0909000000e+01     3.4800000000e+00
         H     2.6113000000e+01     2.1921000000e+01     2.3970000000e+00
         O     2.9862000000e+01     2.5395000000e+01     2.4960000000e+00
         H     3.0247000000e+01     2.4523000000e+01     2.3270000000e+00
         H     3.0558000000e+01     2.6051000000e+01     2.3410000000e+00
         O     2.5545000000e+01     2.3561000000e+01     2.5040000000e+00
         H     2.4627000000e+01     2.3821000000e+01     2.6730000000e+00
         H     2.6097000000e+01     2.4341000000e+01     2.6590000000e+00
         O     3.0862000000e+01     2.2726000000e+01     2.5250000000e+00
         H     3.0771000000e+01     2.2745000000e+01     3.4800000000e+00
         H     3.1820000000e+01     2.2547000000e+01     2.3970000000e+00
         O     2.8294000000e+01     3.0544000000e+01     2.4750000000e+00
         H     2.8326000000e+01     3.0457000000e+01     1.5200000000e+00
         H     2.7984000000e+01     3.1468000000e+01     2.6030000000e+00
         O     2.9206000000e+01     2.0379000000e+01     2.4960000000e+00
         H     2.8288000000e+01     2.0638000000e+01     2.3270000000e+00
         H     2.9759000000e+01     2.1159000000e+01     2.3410000000e+00
         O     2.6201000000e+01     2.8578000000e+01     2.5040000000e+00
         H     2.6585000000e+01     2.7705000000e+01     2.6730000000e+00
         H     2.6896000000e+01     2.9234000000e+01     2.6590000000e+00
         O     2.7201000000e+01     2.5908000000e+01     2.4750000000e+00
         H     2.7109000000e+01     2.5928000000e+01     1.5200000000e+00
         H     2.8159000000e+01     2.5730000000e+01     2.6030000000e+00
         O     3.1955000000e+01     2.7362000000e+01     2.5250000000e+00
         H     3.1987000000e+01     2.7274000000e+01     3.4800000000e+00
         H     3.1646000000e+01     2.8286000000e+01     2.3970000000e+00
         O    -3.1710000000e+00     3.1760000000e+01     2.4960000000e+00
         H    -2.7860000000e+00     3.0887000000e+01     2.3270000000e+00
         H    -2.4750000000e+00     3.2416000000e+01     2.3410000000e+00
         O     3.1077000000e+01     2.9926000000e+01     2.5040000000e+00
         H     3.0159000000e+01     3.0185000000e+01     2.6730000000e+00
         H     3.1630000000e+01     3.0706000000e+01     2.6590000000e+00
         O    -2.1710000000e+00     2.9091000000e+01     2.5250000000e+00
         H    -2.2620000000e+00     2.9110000000e+01     3.4800000000e+00
         H    -1.2130000000e+00     2.8912000000e+01     2.3970000000e+00
         O    -4.7390000000e+00     3.6909000000e+01     2.4750000000e+00
         H    -4.7070000000e+00     3.6822000000e+01     1.5200000000e+00
         H    -5.0490000000e+00     3.7833000000e+01     2.6030000000e+00
         O     3.4738000000e+01     2.6744000000e+01     2.4960000000e+00
         H     3.3820000000e+01     2.7003000000e+01     2.3270000000e+00
         H    -3.2740000000e+00     2.7524000000e+01     2.3410000000e+00
         O     3.1733000000e+01     3.4943000000e+01     2.5040000000e+00
         H     3.2118000000e+01     3.4070000000e+01     2.6730000000e+00
         H     3.2428000000e+01     3.5599000000e+01     2.6590000000e+00
         O     3.2733000000e+01     3.2273000000e+01     2.4750000000e+00
         H     3.2641000000e+01     3.2292000000e+01     1.5200000000e+00
         H     3.3691000000e+01     3.2095000000e+01     2.6030000000e+00
         O    -1.0780000000e+00     3.3727000000e+01     2.5250000000e+00
         H    -1.0460000000e+00     3.3639000000e+01     3.4800000000e+00
         H    -1.3880000000e+00     3.4651000000e+01     2.3970000000e+00
         O     1.5216000000e+01     3.8125000000e+01     2.4960000000e+00
         H     1.5601000000e+01     3.7252000000e+01     2.3270000000e+00
         H     2.1284000000e+01     5.9200000000e-01     2.3410000000e+00
         O     1.0899000000e+01     3.6291000000e+01     2.5040000000e+00
         H     9.9810000000e+00     3.6550000000e+01     2.6730000000e+00
         H     1.1452000000e+01     3.7071000000e+01     2.6590000000e+00
         O     1.6216000000e+01     3.5455000000e+01     2.5250000000e+00
         H     1.6125000000e+01     3.5475000000e+01     3.4800000000e+00
         H     1.7174000000e+01     3.5277000000e+01     2.3970000000e+00
         O     1.9020000000e+01     5.0850000000e+00     2.4750000000e+00
         H     1.9052000000e+01     4.9970000000e+00     1.5200000000e+00
         H     1.8710000000e+01     6.0090000000e+00     2.6030000000e+00
         O     1.4560000000e+01     3.3109000000e+01     2.4960000000e+00
         H     1.3642000000e+01     3.3368000000e+01     2.3270000000e+00
         H     1.5113000000e+01     3.3889000000e+01     2.3410000000e+00
         O     1.6927000000e+01     3.1180000000e+00     2.5040000000e+00
         H     1.7312000000e+01     2.2450000000e+00     2.6730000000e+00
         H     1.7623000000e+01     3.7740000000e+00     2.6590000000e+00
         O     1.7927000000e+01     4.4900000000e-01     2.4750000000e+00
         H     1.7836000000e+01     4.6800000000e-01     1.5200000000e+00
         H     1.8885000000e+01     2.7000000000e-01     2.6030000000e+00
         O     2.2682000000e+01     1.9030000000e+00     2.5250000000e+00
         H     2.2714000000e+01     1.8150000000e+00     3.4800000000e+00
         H     2.2372000000e+01     2.8260000000e+00     2.3970000000e+00
         O     2.6121000000e+01     6.3010000000e+00     2.4960000000e+00
         H     2.6505000000e+01     5.4280000000e+00     2.3270000000e+00
         H     2.6816000000e+01     6.9570000000e+00     2.3410000000e+00
         O     2.1803000000e+01     4.4670000000e+00     2.5040000000e+00
         H     2.0885000000e+01     4.7260000000e+00     2.6730000000e+00
         H     2.2356000000e+01     5.2470000000e+00     2.6590000000e+00
         O     2.7121000000e+01     3.6310000000e+00     2.5250000000e+00
         H     2.7029000000e+01     3.6510000000e+00     3.4800000000e+00
         H     2.8079000000e+01     3.4530000000e+00     2.3970000000e+00
         O     2.4553000000e+01     1.1450000000e+01     2.4750000000e+00
         H     2.4585000000e+01     1.1362000000e+01     1.5200000000e+00
         H     2.4243000000e+01     1.2374000000e+01     2.6030000000e+00
         O     2.5465000000e+01     1.2840000000e+00     2.4960000000e+00
         H     2.4547000000e+01     1.5440000000e+00     2.3270000000e+00
         H     2.6017000000e+01     2.0640000000e+00     2.3410000000e+00
         O     2.2459000000e+01     9.4830000000e+00     2.5040000000e+00
         H     2.2844000000e+01     8.6100000000e+00     2.6730000000e+00
         H     2.3155000000e+01     1.0139000000e+01     2.6590000000e+00
         O     2.3459000000e+01     6.8130000000e+00     2.4750000000e+00
         H     2.3368000000e+01     6.8330000000e+00     1.5200000000e+00
         H     2.4417000000e+01     6.6350000000e+00     2.6030000000e+00
         O     2.8214000000e+01     8.2670000000e+00     2.5250000000e+00
         H     2.8246000000e+01     8.1800000000e+00     3.4800000000e+00
         H     2.7904000000e+01     9.1910000000e+00     2.3970000000e+00
         O     3.1653000000e+01     1.2666000000e+01     2.4960000000e+00
         H     3.2038000000e+01     1.1793000000e+01     2.3270000000e+00
         H     3.2348000000e+01     1.3322000000e+01     2.3410000000e+00
         O     2.7335000000e+01     1.0832000000e+01     2.5040000000e+00
         H     2.6418000000e+01     1.1091000000e+01     2.6730000000e+00
         H     2.7888000000e+01     1.1612000000e+01     2.6590000000e+00
         O     3.2653000000e+01     9.9960000000e+00     2.5250000000e+00
         H     3.2561000000e+01     1.0015000000e+01     3.4800000000e+00
         H     3.3611000000e+01     9.8180000000e+00     2.3970000000e+00
         O     3.0085000000e+01     1.7815000000e+01     2.4750000000e+00
         H     3.0117000000e+01     1.7727000000e+01     1.5200000000e+00
         H     2.9775000000e+01     1.8738000000e+01     2.6030000000e+00
         O     3.0997000000e+01     7.6490000000e+00     2.4960000000e+00
         H     3.0079000000e+01     7.9080000000e+00     2.3270000000e+00
         H     3.1550000000e+01     8.4290000000e+00     2.3410000000e+00
         O     2.7991000000e+01     1.5848000000e+01     2.5040000000e+00
         H     2.8376000000e+01     1.4975000000e+01     2.6730000000e+00
         H     2.8687000000e+01     1.6504000000e+01     2.6590000000e+00
         O     2.8991000000e+01     1.3178000000e+01     2.4750000000e+00
         H     2.8900000000e+01     1.3198000000e+01     1.5200000000e+00
         H     2.9949000000e+01     1.3000000000e+01     2.6030000000e+00
         O     3.3746000000e+01     1.4632000000e+01     2.5250000000e+00
         H     3.3778000000e+01     1.4545000000e+01     3.4800000000e+00
         H     3.3436000000e+01     1.5556000000e+01     2.3970000000e+00
         O    -1.3800000000e+00     1.9030000000e+01     2.4960000000e+00
         H    -9.9600000000e-01     1.8158000000e+01     2.3270000000e+00
         H    -6.8500000000e-01     1.9686000000e+01     2.3410000000e+00
         O     3.2868000000e+01     1.7196000000e+01     2.5040000000e+00
         H     3.1950000000e+01     1.7456000000e+01     2.6730000000e+00
         H     3.3420000000e+01     1.7977000000e+01     2.6590000000e+00
         O    -3.8000000000e-01     1.6361000000e+01     2.5250000000e+00
         H    -4.7200000000e-01     1.6380000000e+01     3.4800000000e+00
         H     5.7800000000e-01     1.6183000000e+01     2.3970000000e+00
         O    -2.9480000000e+00     2.4180000000e+01     2.4750000000e+00
         H    -2.9160000000e+00     2.4092000000e+01     1.5200000000e+00
         H    -3.2580000000e+00     2.5103000000e+01     2.6030000000e+00
         O     3.6529000000e+01     1.4014000000e+01     2.4960000000e+00
         H     3.5611000000e+01     1.4273000000e+01     2.3270000000e+00
         H    -1.4840000000e+00     1.4794000000e+01     2.3410000000e+00
         O     3.3524000000e+01     2.2213000000e+01     2.5040000000e+00
         H     3.3908000000e+01     2.1340000000e+01     2.6730000000e+00
         H     3.4219000000e+01     2.2869000000e+01     2.6590000000e+00
         O     3.4524000000e+01     1.9543000000e+01     2.4750000000e+00
         H     3.4432000000e+01     1.9563000000e+01     1.5200000000e+00
         H     3.5481000000e+01     1.9365000000e+01     2.6030000000e+00
         O     7.1300000000e-01     2.0997000000e+01     2.5250000000e+00
         H     7.4500000000e-01     2.0909000000e+01     3.4800000000e+00
         H     4.0300000000e-01     2.1921000000e+01     2.3970000000e+00
         O     2.8071000000e+01     3.8125000000e+01     2.4960000000e+00
         H     2.8456000000e+01     3.7252000000e+01     2.3270000000e+00
         H     3.4139000000e+01     5.9200000000e-01     2.3410000000e+00
         O     2.3754000000e+01     3.6291000000e+01     2.5040000000e+00
         H     2.2836000000e+01     3.6550000000e+01     2.6730000000e+00
         H     2.4307000000e+01     3.7071000000e+01     2.6590000000e+00
         O     2.9071000000e+01     3.5455000000e+01     2.5250000000e+00
         H     2.8980000000e+01     3.5475000000e+01     3.4800000000e+00
         H     3.0029000000e+01     3.5277000000e+01     2.3970000000e+00
         O     3.1875000000e+01     5.0850000000e+00     2.4750000000e+00
         H     3.1907000000e+01     4.9970000000e+00     1.5200000000e+00
         H     3.1566000000e+01     6.0090000000e+00     2.6030000000e+00
         O     2.7415000000e+01     3.3109000000e+01     2.4960000000e+00
         H     2.6498000000e+01     3.3368000000e+01     2.3270000000e+00
         H     2.7968000000e+01     3.3889000000e+01     2.3410000000e+00
         O     2.9782000000e+01     3.1180000000e+00     2.5040000000e+00
         H     3.0167000000e+01     2.2450000000e+00     2.6730000000e+00
         H     3.0478000000e+01     3.7740000000e+00     2.6590000000e+00
         O     3.0782000000e+01     4.4900000000e-01     2.4750000000e+00
         H     3.0691000000e+01     4.6800000000e-01     1.5200000000e+00
         H     3.1740000000e+01     2.7000000000e-01     2.6030000000e+00
         O     3.5537000000e+01     1.9030000000e+00     2.5250000000e+00
         H     3.5569000000e+01     1.8150000000e+00     3.4800000000e+00
         H     3.5227000000e+01     2.8260000000e+00     2.3970000000e+00
         O     4.1100000000e-01     6.3010000000e+00     2.4960000000e+00
         H     7.9500000000e-01     5.4280000000e+00     2.3270000000e+00
         H     1.1060000000e+00     6.9570000000e+00     2.3410000000e+00
         O     3.4658000000e+01     4.4670000000e+00     2.5040000000e+00
         H     3.3740000000e+01     4.7260000000e+00     2.6730000000e+00
         H     3.5211000000e+01     5.2470000000e+00     2.6590000000e+00
         O     1.4100000000e+00     3.6310000000e+00     2.5250000000e+00
         H     1.3190000000e+00     3.6510000000e+00     3.4800000000e+00
         H     2.3680000000e+00     3.4530000000e+00     2.3970000000e+00
         O    -1.1580000000e+00     1.1450000000e+01     2.4750000000e+00
         H    -1.1260000000e+00     1.1362000000e+01     1.5200000000e+00
         H    -1.4680000000e+00     1.2374000000e+01     2.6030000000e+00
         O     3.8320000000e+01     1.2840000000e+00     2.4960000000e+00
         H     3.7402000000e+01     1.5440000000e+00     2.3270000000e+00
         H     3.0700000000e-01     2.0640000000e+00     2.3410000000e+00
         O     3.5314000000e+01     9.4830000000e+00     2.5040000000e+00
         H     3.5699000000e+01     8.6100000000e+00     2.6730000000e+00
         H     3.6010000000e+01     1.0139000000e+01     2.6590000000e+00
         O     3.6314000000e+01     6.8130000000e+00     2.4750000000e+00
         H     3.6223000000e+01     6.8330000000e+00     1.5200000000e+00
         H     3.7272000000e+01     6.6350000000e+00     2.6030000000e+00
         O     2.5040000000e+00     8.2670000000e+00     2.5250000000e+00
         H     2.5360000000e+00     8.1800000000e+00     3.4800000000e+00
         H     2.1940000000e+00     9.1910000000e+00     2.3970000000e+00
